FoamFile
{
     version 2.0;
     format ascii;
     class volScalarField;
     object omega;
}

dimensions      [0 0 -1 0 0 0 0];

internalField   uniform 6.614637594150044;

boundaryField
{
    defaultPatch
    {
        type            zeroGradient;
    }
    walls
    {
        type            omegaWallFunction;
        value            uniform 1e-10;
    }
    velocity_inlet
    {
        type            fixedValue;
        value            uniform 6.614637594150044;
    }
    pressure_outlet
    {
        type            zeroGradient;
    }
}
