/*--------------------------------*- C++ -*----------------------------------*\
| =========                 |                                                 |
| \\      /  F ield         | OpenFOAM: The Open Source CFD Toolbox           |
|  \\    /   O peration     | Version:  2412                                  |
|   \\  /    A nd           | Website:  www.openfoam.com                      |
|    \\/     M anipulation  |                                                 |
\*---------------------------------------------------------------------------*/
FoamFile
{
    version     2.0;
    format      ascii;
    arch        "LSB;label=32;scalar=64";
    class       polyBoundaryMesh;
    location    "constant/polyMesh";
    object      boundary;
}
// * * * * * * * * * * * * * * * * * * * * * * * * * * * * * * * * * * * * * //

3
(
    walls
    {
        type          wall;
        physicalType    wall;
        nFaces          11726;
        startFace       124195;
    }
    pressure_outlet
    {
        type          patch;
        physicalType    patch;
        nFaces          354;
        startFace       135921;
    }
    velocity_inlet
    {
        type          patch;
        physicalType    patch;
        nFaces          354;
        startFace       136275;
    }
)

// ************************************************************************* //
