FoamFile
{
    version     2.0;
    format      ascii;
    class       dictionary;
    object      fvSchemes;
}

ddtSchemes
{
    default         steadyState;
}

gradSchemes
{
    default         leastSquares;
}

divSchemes
{
    div(phi,U)                         Gauss limitedLinearV 1;
    div((nuEff*dev2(T(grad(U)))))      Gauss linear;
}

laplacianSchemes
{
    default         Gauss linear corrected;
}

interpolationSchemes
{
    default         linear;
}

snGradSchemes
{
    default         corrected;
}
