FoamFile
{
    version     2.0;
    format      ascii;
    class       dictionary;
    object      controlDict;
}

application     simpleFoam;
startFrom       startTime;
startTime       0;
stopAt          endTime;
endTime         100;
deltaT          1;
writeControl    timeStep;
writeInterval   100;
purgeWrite      0;
writeFormat     ascii;
writePrecision  6;
writeCompression off;
timeFormat      general;
timePrecision   6;
runTimeModifiable yes;

functions
{
    massFlowInlet {
		type            surfaceFieldValue;
        libs            (fieldFunctionObjects);
        writeControl    timeStep;
        writeInterval   1;
        log             yes;
        writeFields     false;
        regionType      patch;
        name            velocity_inlet;
        operation       sum;
        fields          (phi);
	}

    massFlowOutlet {
		type            surfaceFieldValue;
        libs            (fieldFunctionObjects);
        writeControl    timeStep;
        writeInterval   1;
        log             yes;
        writeFields     false;
        regionType      patch;
        name            pressure_outlet;
        operation       sum;
        fields          (phi);
	}
}
